22
 generated by VMD
 H        18.052065       14.477406       12.523846
 C        17.325287       15.239099       12.806187
 H        16.430107       15.132755       12.193452
 H        17.755928       16.228287       12.650774
 C        16.929316       15.103963       14.277868
 O        17.418943       14.219611       14.976887
 N        16.040705       15.985951       14.741213
 H        15.666180       16.695368       14.127569
 C        15.585008       15.963330       16.116507
 H        15.109900       15.005102       16.326670
 C        16.748783       16.152752       17.083651
 H        17.229021       17.112221       16.891581
 H        16.377535       16.131506       18.108259
 H        17.472792       15.350113       16.943367
 C        14.577349       17.073574       16.378166
 O        14.250811       17.844378       15.478347
 N        14.084163       17.153645       17.616142
 H        14.383434       16.496622       18.322441
 C        13.118012       18.166206       17.991474
 H        12.896077       18.794792       17.129080
 H        12.202162       17.685534       18.335382
 H        13.527985       18.781069       18.792704
